* hi this is a test
r3 0 1 1
v1 2 1 5 0 0 0
r2 0 1 4
r1 2 3 5
r5 0 3 1
r6 2 3 2
r7 3 0 3
v2 1 3 4 0 0 0
i1 0 1 1 0 0 0
r78 0 2 5
r10 1 2 2
.tran 500m
dv 1m
dI 10m
dT 100m
END