* hi this is a test
v1 0 1 1 0 0 0
i1 1 0 2 0 0 0
d1 1 3
d2 2 1
i2 1 2 5 0 0 0
v2 2 3 5 0 0 0
r2 0 2 4k
.tran 500m
dv 1n
dI 1m
dT 20m
END