* hi this is a test
v1 0 1 4 0 0 0
r1 0 2 2
l1 1 3 1
c1 2 3 1
.tran 500m
dv 0.01
dI 1m
dT 10m
END