r1 1 0 2
v1 1 2 3 0 0 0
v2 2 3 4 0 0 0
v3 1 3 7 0 0 0
r2 3 0 5
di 10m
dv 1m
dt 1m
.tran 1
END