* hi this is a test
l1 1 2 1
c1 1 2 2
c2 0 2 1
l3 0 2 2
l2 0 1 1
i1 0 1 5 0 0 0
r1 0 3 1
v2 1 3 4 0 0 0
r2 1 3 1
r3 0 3 1
v1 2 3 5 0 0 0
r4 3 2 4
.tran 1
dv 1m
dI 1m
dT 10m
END