* hi this is a test
i1 0 3 5 0 0 0
f1 0 3 5 0 0
g1 4 3 5 0 0
h1 5 3 5 0 0
e1 0 3 5 0 0
r1 1 0 1
d1 0 1
d1 0 2
d1 2 1
i2 1 3 5 0 0 0
f2 1 3 5 0 0
g2 1 3 5 0 0
h2 1 3 5 0 0
e2 1 3 5 0 0
i3 2 3 5 0 0 0
f3 2 3 5 0 0
g3 2 3 5 0 0
h3 2 3 5 0 0
e3 2 3 5 0 0
.tran 2m
dv 0.5m
dI 10m
dT 0.1m
END