* hi this is a test
e1 0 1 1 2 3
h2 1 2 4 2 1
c1 2 0 1n
.tran 400m
dv 1m
dI 20m
dT 20m
END