di 20n
dv 10n
dt 4u
I1 1 0 10m 0 0 0
L1 1 0 10u
C1 1 0 1u
R1 1 0 1k
.tran 1m
END