* hi this is a test
i2 2 0 0 4 1 0
r1 0 2 3
.tran 4
dv 1m
dI 1m
dT 1m
END