* hi this is a test
v1 1 0 1 0 0 0
r1 1 2 2
r3 1 2 1
r4 1 2 3
r5 2 3 4
r6 1 3 5
r7 2 3 4
r2 2 3 2
l1 3 0 2
r8 3 0 2
c1 1 3 1m
c2 2 0 1m
.tran 100m
dv 1m
dI 20m
dT 10m
END