r1 0 1 1
r2 0 1 4
r3 2 3 5
r4 1 2 4
r5 0 3 1
r6 2 3 2
r7 3 0 3
r8 0 2 5
r9 1 2 2
v1 1 3 4 0 0 0
v2 2 1 5 0 0 0
i1 0 1 1 0 0 0
dv 1m
di 10m
dt 50m
.tran 500m
END