* hi this is a test
r1 0 2 2
l1 0 3 1
c1 2 3 1
.tran 500m
dv 0.01
dI 1m
dT 10m
END