* hi this is a test
i1 1 0 1 0 0 0
r1 2 1 2
c1 3 2 3
r2 3 4 2
i2 4 5 6 0 0 0
l2 5 6 1
r3 6 7 1
f1 7 8 1 2 2
g1 0 8 1 2 2
c2 8 9 6
l2 9 10 1
r3 10 0 1
.tran 2m
dv 0.5m
dI 10m
dT 0.1m
END