* hi this is a test
v1 1 0 2 2 4 0
r1 1 0 4
.tran 1
dv 1m
dI 10m
dT 10m
END