* hi this is a test
r3 0 1 1
v1 2 1 5 0 0 0
r2 0 2 4
.tran 500m
dv 1m
dI 10m
dT 10m
END