di 500u
dv 50u
dt 0.2u
V1 1 0 1 0 0 0
R1 1 2 100m
L1 2 3 1m
C1 3 0 25n
.tran 50u
END