* hi this is a test
v1 0 2 1 0 0 0
c1 1 2 5u
r1 0 2 5k
l1 1 0 2m
dv 10u
di 100u
dt 10u
.tran 10m
END
