* hi this is a test
e1 0 1 1 2 3
g2 1 2 4 1 1
h1 2 0 1 1 1
f2 2 1 1 1 1
.tran 400m
dv 1m
dI 20m
dT 20m
END