* hi this is a test
v1 1 0 0 5 100 0
r3 1 2 1
c3 3 2 1m
r4 3 4 1
r5 5 4 1
r6 5 6 1
r7 6 7 1
r8 7 8 1
r9 8 0 1
l3 3 4 1
c3 4 5 1m
r3 5 6 1
r10 5 6 1
l4 7 8 1
.tran 10m
dv 0.05m
dI 0.5m
dT 0.25m
END