* hi this is a test
v1 2 1 3 0 0 0
r3 0 1 1
r1 2 3 1
r2 3 0 1
.tran 500m
dv 0.01
dI 1m
dT 10m
END