* hi this is a test
e1 0 1 1 2 3
e2 1 2 4 1 1
f3 1 2 3 4 5
h4 0 2 1 2 3
g5 2 0 2 3 4
e6 1 0 1 2 3
.tran 400m
dv 1m
dI 20m
dT 20m
END