* hi this is a test
c1 0 1 1m
v1 2 1 5 0 0 0
r2 0 2 4k
.tran 500m
dv 1n
dI 1m
dT 20m
END