* hi this is a test
h1 0 1 1 2 3
r2 1 2 4
c1 2 0 1n
.tran 400m
dv 1m
dI 20m
dT 20m
END