* hi this is a test
v1 0 1 1 0 0 0
r2 1 2 4
c1 2 0 1n
.tran 400m
dv 1m
dI 20m
dT 20m
END