* hi this is a test
v1 0 1 4 0 0 0
r1 1 2 2
r2 2 0 6
.tran 500m
dv 0.01
dI 0.1
dT 20m
END