* hi this is a test
f1 0 1 1 2 3
g2 1 2 4 1 1
g3 2 0 1 1 1
f3 2 1 1 1 1
.tran 400m
dv 1m
dI 20m
dT 20m
END