* hi this is a test
v1 1 0 1 0 0 0
r1 2 1 2
r3 2 0 2
.tran 2m
dv 0.5m
dI 10m
dT 0.1m
END