* hi this is a test
v1 1 0 1 0 0 0
r1 0 1 2
.tran 100m
dv 0.1m
dI 1m
dT 10m
END