* hi this is a test
v1 0 1 5 0 0 0
r1 1 2 2
r2 2 0 3
.tran 50m
dv 0.1
dI 1m
dT 10m
END