* hi this is a test
v1 1 0 4 0 0 0
c3 1 2 2
l1 3 2 1
r2 0 3 1
.tran 500m
dv 0.01
dI 1m
dT 10m
END